SUMMARY OF JOB INFORMATION
  STEP      INC     ATT  ITRS     TOT TIME     STEP TIME      INC TIME
     1          1     1U   16  0.000000E+00  0.000000E+00  0.100000E+01
     1          1     2    10  0.500000E+00  0.500000E+00  0.500000E+00
     1          2     1U    5  0.500000E+00  0.500000E+00  0.500000E+00
     1          2     2U   10  0.500000E+00  0.500000E+00  0.125000E+00
     1          2     3    11  0.562500E+00  0.562500E+00  0.625000E-01
     1          3     1U    5  0.562500E+00  0.562500E+00  0.468750E-01
     1          3     2     5  0.574219E+00  0.574219E+00  0.117188E-01
     1          4     1     5  0.585938E+00  0.585938E+00  0.117188E-01
     1          5     1     5  0.597656E+00  0.597656E+00  0.117188E-01
     1          6     1     4  0.609375E+00  0.609375E+00  0.117188E-01
     1          7     1     3  0.621094E+00  0.621094E+00  0.117188E-01
     1          8     1     3  0.638672E+00  0.638672E+00  0.175781E-01
     1          9     1     3  0.665039E+00  0.665039E+00  0.263672E-01
     1         10     1     4  0.704590E+00  0.704590E+00  0.395508E-01
     1         11     1     3  0.763916E+00  0.763916E+00  0.593262E-01
     1         12     1     4  0.852905E+00  0.852905E+00  0.889893E-01
     1         13     1     4  0.986389E+00  0.986389E+00  0.133484E+00
     1         14     1     3  0.100000E+01  0.100000E+01  0.136108E-01
